/*--------------------------------*- C++ -*----------------------------------*\
| =========                 |                                                 |
| \\      /  F ield         | OpenFOAM: The Open Source CFD Toolbox           |
|  \\    /   O peration     | Version:  v1906                                 |
|   \\  /    A nd           | Web:      www.OpenFOAM.com                      |
|    \\/     M anipulation  |                                                 |
\*---------------------------------------------------------------------------*/
FoamFile
{
    version     2.0;
    format      ascii;
    class       dictionary;
    location    "system";
    object      fvSolution;
}
// * * * * * * * * * * * * * * * * * * * * * * * * * * * * * * * * * * * * * //

solvers
{
    ".*(rho|rhoFinal)"
    {
        solver          diagonal;
    }

    "alpha.*"
    {
        solver          smoothSolver;
        smoother        symGaussSeidel;
        tolerance       1e-08;
        relTol          0.0;
        minIter         1;

        cAlphas          ((liquid and gas) 1);

        nAlphaCorr      2;
        nAlphaSubCycles 2;
        cYi             1;
        MULESCorr       yes;
        nLimiterIter    3;
        alphaApplyPrevCorr yes;
    }

    "(U.*|epsilon.*|k.*|T.*)"
    {
        solver          smoothSolver;
        smoother        symGaussSeidel;
        tolerance       1e-7;
        relTol          0;
    };
    mDotSmearFinal
    {
        solver           PCG;
        tolerance        1e-6;
        preconditioner   DIC;
        relTol           0.00;
        smoother         DIC;
    }

    mDotSmear
    {
        solver           PCG;
        tolerance        1e-6;
        preconditioner   DIC;
        relTol           0.00;
        smoother         DIC;
    }



    p_rgh
    {
        solver          GAMG;
        smoother        DIC;
        tolerance       1e-07;
        relTol          0.001;
    }

    p_rghFinal
    {
        $p_rgh;
        tolerance       1e-8; /* Should be 1 to 2 orders of 
                                 magnitude smaller than 
                                 alpha.phase1.*.surfCellTol */
        relTol          0;
    }
}

PIMPLE
{
    momentumPredictor   true;
    nOuterCorrectors    1;
    nCorrectors         3;
    nNonOrthogonalCorrectors 0;
}

relaxationFactors
{
    fields
    {
    }
    equations
    {
        ".*"            1;
    }
}


// ************************************************************************* //
